10
CH3C(O)O optimized at wb97xd/6-311++g(d,p)
O      -0.53466300   -1.24850800   -0.02156300
O      -0.79314200    1.04818800    0.18134200
C      -0.02397300    0.01171700   -0.37827400
C       1.40511900    0.21728200    0.07675200
H      -0.09294500    0.02877800   -1.47163200
H       2.04132100   -0.57108600   -0.32806800
H       1.45535600    0.19295200    1.16972300
H       1.77484100    1.18704300   -0.25986700
H      -0.43701200   -1.34990600    0.92900600
H      -1.69944700    0.93441600   -0.11271200

